REMARK  Name = 2764
REMARK  4 active torsions:
REMARK  status: ('A' for Active; 'I' for Inactive)
REMARK    1  A    between atoms: O_3  and  C_24
REMARK    2  A    between atoms: N_5  and  C_8
REMARK    3  A    between atoms: N_6  and  C_15
REMARK    4  A    between atoms: C_18  and  C_24
REMARK                            x       y       z     vdW  Elec       q    Type
REMARK                         _______ _______ _______ _____ _____    ______ ____
ROOT
ATOM      1  F   UNL     1       3.703   2.348  -0.185  0.00  0.00    +0.000 F 
ATOM      2  O   UNL     1       8.472   3.531   0.347  0.00  0.00    +0.000 OA
ATOM      3  N   UNL     1       8.470  -0.525  -0.051  0.00  0.00    +0.000 N 
ATOM      4  C   UNL     1       7.239   0.184  -0.143  0.00  0.00    +0.000 A 
ATOM      5  C   UNL     1       9.647   0.202   0.056  0.00  0.00    +0.000 A 
ATOM      6  C   UNL     1       7.223   1.577   0.014  0.00  0.00    +0.000 A 
ATOM      7  C   UNL     1       6.007  -0.458  -0.361  0.00  0.00    +0.000 A 
ATOM      8  C   UNL     1       4.752   0.191  -0.312  0.00  0.00    +0.000 A 
ATOM      9  C   UNL     1       9.764   1.537   0.160  0.00  0.00    +0.000 A 
ATOM     10  C   UNL     1       8.498   2.318   0.192  0.00  0.00    +0.000 A 
ATOM     11  C   UNL     1       6.018   2.280  -0.026  0.00  0.00    +0.000 A 
ATOM     12  C   UNL     1       4.812   1.593  -0.180  0.00  0.00    +0.000 A 
ENDROOT
BRANCH   8  13
ATOM     13  N   UNL     1       3.546  -0.568  -0.418  0.00  0.00    +0.000 N 
ATOM     14  N   UNL     1       1.213  -2.063   0.669  0.00  0.00    +0.000 NA
ATOM     15  C   UNL     1       2.318   0.130   0.050  0.00  0.00    +0.000 C 
ATOM     16  C   UNL     1       3.653  -1.975   0.062  0.00  0.00    +0.000 C 
ATOM     17  C   UNL     1       1.052  -0.756   0.017  0.00  0.00    +0.000 C 
ATOM     18  C   UNL     1       2.327  -2.757   0.016  0.00  0.00    +0.000 C 
ATOM     19  H   UNL     1       0.361  -2.606   0.540  0.00  0.00    +0.000 HD
ENDBRANCH   8  13
BRANCH   3  20
ATOM     20  C   UNL     1       8.604  -1.953  -0.425  0.00  0.00    +0.000 C 
ATOM     21  C   UNL     1       7.820  -3.057   0.123  0.00  0.00    +0.000 C 
ATOM     22  C   UNL     1       9.275  -2.940   0.552  0.00  0.00    +0.000 C 
ENDBRANCH   3  20
BRANCH   9  24
ATOM     23  O   UNL     1      11.331   3.373   0.287  0.00  0.00    +0.000 OA
ATOM     24  C   UNL     1      11.088   2.185   0.204  0.00  0.00    +0.000 C 
BRANCH  24  25
ATOM     25  O   UNL     1      12.115   1.312   0.105  0.00  0.00    +0.000 OA
ATOM     26  H   UNL     1      12.901   1.898   0.122  0.00  0.00    +0.000 HD
ENDBRANCH  24  25
ENDBRANCH   9  24
TORSDOF 4
