MODEL 1
REMARK VINA RESULT:    -7.647      0.000      0.000
REMARK INTER + INTRA:          -9.429
REMARK INTER:                  -8.765
REMARK INTRA:                  -0.664
REMARK UNBOUND:                -0.664
REMARK  Name = 149096
REMARK  5 active torsions:
REMARK  status: ('A' for Active; 'I' for Inactive)
REMARK    1  A    between atoms: O_4  and  C_26
REMARK    2  A    between atoms: N_6  and  C_12
REMARK    3  A    between atoms: N_8  and  C_24
REMARK    4  A    between atoms: C_11  and  C_22
REMARK    5  A    between atoms: C_25  and  C_26
REMARK                            x       y       z     vdW  Elec       q    Type
REMARK                         _______ _______ _______ _____ _____    ______ ____
ROOT
ATOM      1  F   UNL     1      38.432  16.802  14.090  0.00  0.00    +0.000 F 
ATOM      2  O   UNL     1      40.498  16.252  18.389  0.00  0.00    +0.000 OA
ATOM      3  O   UNL     1      37.758  12.058  15.249  0.00  0.00    +0.000 OA
ATOM      4  N   UNL     1      40.188  13.499  18.202  0.00  0.00    +0.000 N 
ATOM      5  C   UNL     1      41.506  13.965  18.701  0.00  0.00    +0.000 C 
ATOM      6  C   UNL     1      39.626  16.662  16.177  0.00  0.00    +0.000 A 
ATOM      7  C   UNL     1      39.697  14.376  17.188  0.00  0.00    +0.000 A 
ATOM      8  C   UNL     1      39.983  15.753  17.219  0.00  0.00    +0.000 A 
ATOM      9  C   UNL     1      41.525  15.474  18.985  0.00  0.00    +0.000 C 
ATOM     10  C   UNL     1      38.895  13.890  16.153  0.00  0.00    +0.000 A 
ATOM     11  C   UNL     1      38.851  16.082  15.142  0.00  0.00    +0.000 A 
ATOM     12  C   UNL     1      39.829  12.165  18.131  0.00  0.00    +0.000 A 
ATOM     13  C   UNL     1      38.475  14.738  15.133  0.00  0.00    +0.000 A 
ATOM     14  C   UNL     1      42.001  13.244  19.958  0.00  0.00    +0.000 C 
ATOM     15  C   UNL     1      38.492  12.467  16.137  0.00  0.00    +0.000 A 
ATOM     16  C   UNL     1      39.015  11.589  17.213  0.00  0.00    +0.000 A 
ENDROOT
BRANCH   6  17
ATOM     17  N   UNL     1      40.005  18.038  16.181  0.00  0.00    +0.000 N 
ATOM     18  N   UNL     1      40.783  20.841  15.999  0.00  0.00    +0.000 NA
ATOM     19  C   UNL     1      41.152  18.399  15.328  0.00  0.00    +0.000 C 
ATOM     20  C   UNL     1      38.938  19.044  16.306  0.00  0.00    +0.000 C 
ATOM     21  C   UNL     1      41.482  19.886  15.164  0.00  0.00    +0.000 C 
ATOM     22  C   UNL     1      39.385  20.528  16.264  0.00  0.00    +0.000 C 
ATOM     23  C   UNL     1      41.021  22.219  15.586  0.00  0.00    +0.000 C 
ENDBRANCH   6  17
BRANCH  16  25
ATOM     24  O   UNL     1      39.481   9.220  17.418  0.00  0.00    +0.000 OA
ATOM     25  C   UNL     1      38.706  10.147  17.269  0.00  0.00    +0.000 C 
BRANCH  25  26
ATOM     26  O   UNL     1      37.388   9.880  17.149  0.00  0.00    +0.000 OA
ATOM     27  H   UNL     1      37.217   9.259  17.881  0.00  0.00    +0.000 HD
ENDBRANCH  25  26
ENDBRANCH  16  25
TORSDOF 3
ENDMDL
MODEL 2
REMARK VINA RESULT:    -7.638      2.830      4.184
REMARK INTER + INTRA:          -9.419
REMARK INTER:                  -8.773
REMARK INTRA:                  -0.645
REMARK UNBOUND:                -0.664
REMARK  Name = 149096
REMARK  5 active torsions:
REMARK  status: ('A' for Active; 'I' for Inactive)
REMARK    1  A    between atoms: O_4  and  C_26
REMARK    2  A    between atoms: N_6  and  C_12
REMARK    3  A    between atoms: N_8  and  C_24
REMARK    4  A    between atoms: C_11  and  C_22
REMARK    5  A    between atoms: C_25  and  C_26
REMARK                            x       y       z     vdW  Elec       q    Type
REMARK                         _______ _______ _______ _____ _____    ______ ____
ROOT
ATOM      1  F   UNL     1      41.530  14.793  21.119  0.00  0.00    +0.000 F 
ATOM      2  O   UNL     1      40.852  16.255  16.596  0.00  0.00    +0.000 OA
ATOM      3  O   UNL     1      39.516  10.935  18.804  0.00  0.00    +0.000 OA
ATOM      4  N   UNL     1      39.382  13.961  16.060  0.00  0.00    +0.000 N 
ATOM      5  C   UNL     1      38.813  15.227  15.534  0.00  0.00    +0.000 C 
ATOM      6  C   UNL     1      41.134  15.722  18.932  0.00  0.00    +0.000 A 
ATOM      7  C   UNL     1      39.992  14.175  17.332  0.00  0.00    +0.000 A 
ATOM      8  C   UNL     1      40.613  15.400  17.642  0.00  0.00    +0.000 A 
ATOM      9  C   UNL     1      39.783  16.409  15.676  0.00  0.00    +0.000 C 
ATOM     10  C   UNL     1      40.014  13.162  18.292  0.00  0.00    +0.000 A 
ATOM     11  C   UNL     1      41.078  14.655  19.863  0.00  0.00    +0.000 A 
ATOM     12  C   UNL     1      38.832  12.716  15.809  0.00  0.00    +0.000 A 
ATOM     13  C   UNL     1      40.552  13.399  19.553  0.00  0.00    +0.000 A 
ATOM     14  C   UNL     1      38.361  15.163  14.073  0.00  0.00    +0.000 C 
ATOM     15  C   UNL     1      39.458  11.829  17.971  0.00  0.00    +0.000 A 
ATOM     16  C   UNL     1      38.841  11.642  16.635  0.00  0.00    +0.000 A 
ENDROOT
BRANCH   6  17
ATOM     17  N   UNL     1      41.676  17.002  19.255  0.00  0.00    +0.000 N 
ATOM     18  N   UNL     1      42.712  19.595  20.091  0.00  0.00    +0.000 NA
ATOM     19  C   UNL     1      40.769  17.936  19.948  0.00  0.00    +0.000 C 
ATOM     20  C   UNL     1      43.098  17.072  19.626  0.00  0.00    +0.000 C 
ATOM     21  C   UNL     1      41.357  19.250  20.469  0.00  0.00    +0.000 C 
ATOM     22  C   UNL     1      43.639  18.473  20.011  0.00  0.00    +0.000 C 
ATOM     23  C   UNL     1      43.222  20.742  20.832  0.00  0.00    +0.000 C 
ENDBRANCH   6  17
BRANCH  16  25
ATOM     24  O   UNL     1      38.430   9.724  15.213  0.00  0.00    +0.000 OA
ATOM     25  C   UNL     1      38.224  10.364  16.227  0.00  0.00    +0.000 C 
BRANCH  25  26
ATOM     26  O   UNL     1      37.340   9.888  17.130  0.00  0.00    +0.000 OA
ATOM     27  H   UNL     1      37.473   8.922  17.085  0.00  0.00    +0.000 HD
ENDBRANCH  25  26
ENDBRANCH  16  25
TORSDOF 3
ENDMDL
MODEL 3
REMARK VINA RESULT:    -7.472      6.432     10.234
REMARK INTER + INTRA:          -9.228
REMARK INTER:                  -8.582
REMARK INTRA:                  -0.646
REMARK UNBOUND:                -0.664
REMARK  Name = 149096
REMARK  5 active torsions:
REMARK  status: ('A' for Active; 'I' for Inactive)
REMARK    1  A    between atoms: O_4  and  C_26
REMARK    2  A    between atoms: N_6  and  C_12
REMARK    3  A    between atoms: N_8  and  C_24
REMARK    4  A    between atoms: C_11  and  C_22
REMARK    5  A    between atoms: C_25  and  C_26
REMARK                            x       y       z     vdW  Elec       q    Type
REMARK                         _______ _______ _______ _____ _____    ______ ____
ROOT
ATOM      1  F   UNL     1      38.197   7.563  14.852  0.00  0.00    +0.000 F 
ATOM      2  O   UNL     1      41.765   6.183  17.754  0.00  0.00    +0.000 OA
ATOM      3  O   UNL     1      38.985  11.400  17.844  0.00  0.00    +0.000 OA
ATOM      4  N   UNL     1      41.375   8.436  19.329  0.00  0.00    +0.000 N 
ATOM      5  C   UNL     1      41.577   7.163  20.066  0.00  0.00    +0.000 C 
ATOM      6  C   UNL     1      39.895   6.671  16.310  0.00  0.00    +0.000 A 
ATOM      7  C   UNL     1      40.612   8.213  18.143  0.00  0.00    +0.000 A 
ATOM      8  C   UNL     1      40.715   7.004  17.430  0.00  0.00    +0.000 A 
ATOM      9  C   UNL     1      42.002   6.013  19.142  0.00  0.00    +0.000 C 
ATOM     10  C   UNL     1      39.765   9.205  17.644  0.00  0.00    +0.000 A 
ATOM     11  C   UNL     1      39.030   7.714  15.893  0.00  0.00    +0.000 A 
ATOM     12  C   UNL     1      41.257   9.666  19.951  0.00  0.00    +0.000 A 
ATOM     13  C   UNL     1      38.975   8.957  16.525  0.00  0.00    +0.000 A 
ATOM     14  C   UNL     1      42.588   7.245  21.212  0.00  0.00    +0.000 C 
ATOM     15  C   UNL     1      39.701  10.524  18.310  0.00  0.00    +0.000 A 
ATOM     16  C   UNL     1      40.515  10.721  19.534  0.00  0.00    +0.000 A 
ENDROOT
BRANCH   6  17
ATOM     17  N   UNL     1      39.948   5.403  15.656  0.00  0.00    +0.000 N 
ATOM     18  N   UNL     1      39.870   2.832  14.286  0.00  0.00    +0.000 NA
ATOM     19  C   UNL     1      38.901   4.435  16.030  0.00  0.00    +0.000 C 
ATOM     20  C   UNL     1      40.403   5.371  14.257  0.00  0.00    +0.000 C 
ATOM     21  C   UNL     1      38.813   3.132  15.230  0.00  0.00    +0.000 C 
ATOM     22  C   UNL     1      40.407   3.982  13.568  0.00  0.00    +0.000 C 
ATOM     23  C   UNL     1      39.551   1.691  13.437  0.00  0.00    +0.000 C 
ENDBRANCH   6  17
BRANCH  16  25
ATOM     24  O   UNL     1      41.441  12.593  20.761  0.00  0.00    +0.000 OA
ATOM     25  C   UNL     1      40.496  11.985  20.296  0.00  0.00    +0.000 C 
BRANCH  25  26
ATOM     26  O   UNL     1      39.254  12.490  20.457  0.00  0.00    +0.000 OA
ATOM     27  H   UNL     1      38.811  11.824  21.015  0.00  0.00    +0.000 HD
ENDBRANCH  25  26
ENDBRANCH  16  25
TORSDOF 3
ENDMDL
MODEL 4
REMARK VINA RESULT:    -7.432      6.383     11.369
REMARK INTER + INTRA:          -9.183
REMARK INTER:                  -8.507
REMARK INTRA:                  -0.676
REMARK UNBOUND:                -0.664
REMARK  Name = 149096
REMARK  5 active torsions:
REMARK  status: ('A' for Active; 'I' for Inactive)
REMARK    1  A    between atoms: O_4  and  C_26
REMARK    2  A    between atoms: N_6  and  C_12
REMARK    3  A    between atoms: N_8  and  C_24
REMARK    4  A    between atoms: C_11  and  C_22
REMARK    5  A    between atoms: C_25  and  C_26
REMARK                            x       y       z     vdW  Elec       q    Type
REMARK                         _______ _______ _______ _____ _____    ______ ____
ROOT
ATOM      1  F   UNL     1      42.503   5.597  21.216  0.00  0.00    +0.000 F 
ATOM      2  O   UNL     1      40.016   6.189  17.151  0.00  0.00    +0.000 OA
ATOM      3  O   UNL     1      41.137  10.333  21.217  0.00  0.00    +0.000 OA
ATOM      4  N   UNL     1      39.988   8.937  17.551  0.00  0.00    +0.000 N 
ATOM      5  C   UNL     1      40.288   8.492  16.168  0.00  0.00    +0.000 C 
ATOM      6  C   UNL     1      41.400   5.761  19.080  0.00  0.00    +0.000 A 
ATOM      7  C   UNL     1      40.577   8.050  18.502  0.00  0.00    +0.000 A 
ATOM      8  C   UNL     1      40.714   6.677  18.226  0.00  0.00    +0.000 A 
ATOM      9  C   UNL     1      40.070   6.984  15.977  0.00  0.00    +0.000 C 
ATOM     10  C   UNL     1      41.007   8.521  19.745  0.00  0.00    +0.000 A 
ATOM     11  C   UNL     1      41.844   6.325  20.301  0.00  0.00    +0.000 A 
ATOM     12  C   UNL     1      39.845  10.265  17.910  0.00  0.00    +0.000 A 
ATOM     13  C   UNL     1      41.639   7.664  20.641  0.00  0.00    +0.000 A 
ATOM     14  C   UNL     1      39.500   9.223  15.079  0.00  0.00    +0.000 C 
ATOM     15  C   UNL     1      40.793   9.938  20.111  0.00  0.00    +0.000 A 
ATOM     16  C   UNL     1      40.169  10.826  19.100  0.00  0.00    +0.000 A 
ENDROOT
BRANCH   6  17
ATOM     17  N   UNL     1      41.611   4.390  18.740  0.00  0.00    +0.000 N 
ATOM     18  N   UNL     1      42.199   1.596  18.155  0.00  0.00    +0.000 NA
ATOM     19  C   UNL     1      42.969   4.033  18.294  0.00  0.00    +0.000 C 
ATOM     20  C   UNL     1      40.886   3.371  19.517  0.00  0.00    +0.000 C 
ATOM     21  C   UNL     1      43.289   2.549  18.089  0.00  0.00    +0.000 C 
ATOM     22  C   UNL     1      41.174   1.893  19.147  0.00  0.00    +0.000 C 
ATOM     23  C   UNL     1      42.668   0.216  18.172  0.00  0.00    +0.000 C 
ENDBRANCH   6  17
BRANCH  16  25
ATOM     24  O   UNL     1      40.293  13.206  18.661  0.00  0.00    +0.000 OA
ATOM     25  C   UNL     1      39.945  12.264  19.349  0.00  0.00    +0.000 C 
BRANCH  25  26
ATOM     26  O   UNL     1      39.255  12.507  20.484  0.00  0.00    +0.000 OA
ATOM     27  H   UNL     1      38.745  11.686  20.616  0.00  0.00    +0.000 HD
ENDBRANCH  25  26
ENDBRANCH  16  25
TORSDOF 3
ENDMDL
MODEL 5
REMARK VINA RESULT:    -7.318      7.849     11.385
REMARK INTER + INTRA:          -9.052
REMARK INTER:                  -8.553
REMARK INTRA:                  -0.499
REMARK UNBOUND:                -0.664
REMARK  Name = 149096
REMARK  5 active torsions:
REMARK  status: ('A' for Active; 'I' for Inactive)
REMARK    1  A    between atoms: O_4  and  C_26
REMARK    2  A    between atoms: N_6  and  C_12
REMARK    3  A    between atoms: N_8  and  C_24
REMARK    4  A    between atoms: C_11  and  C_22
REMARK    5  A    between atoms: C_25  and  C_26
REMARK                            x       y       z     vdW  Elec       q    Type
REMARK                         _______ _______ _______ _____ _____    ______ ____
ROOT
ATOM      1  F   UNL     1      43.706   6.499  22.764  0.00  0.00    +0.000 F 
ATOM      2  O   UNL     1      41.721   6.196  18.402  0.00  0.00    +0.000 OA
ATOM      3  O   UNL     1      43.481   1.674  21.780  0.00  0.00    +0.000 OA
ATOM      4  N   UNL     1      41.482   3.444  18.686  0.00  0.00    +0.000 N 
ATOM      5  C   UNL     1      40.299   4.137  18.119  0.00  0.00    +0.000 C 
ATOM      6  C   UNL     1      42.580   6.513  20.635  0.00  0.00    +0.000 A 
ATOM      7  C   UNL     1      42.099   4.247  19.692  0.00  0.00    +0.000 A 
ATOM      8  C   UNL     1      42.089   5.652  19.607  0.00  0.00    +0.000 A 
ATOM      9  C   UNL     1      40.584   5.609  17.789  0.00  0.00    +0.000 C 
ATOM     10  C   UNL     1      42.755   3.655  20.774  0.00  0.00    +0.000 A 
ATOM     11  C   UNL     1      43.191   5.834  21.718  0.00  0.00    +0.000 A 
ATOM     12  C   UNL     1      41.572   2.069  18.813  0.00  0.00    +0.000 A 
ATOM     13  C   UNL     1      43.297   4.444  21.784  0.00  0.00    +0.000 A 
ATOM     14  C   UNL     1      39.716   3.478  16.866  0.00  0.00    +0.000 C 
ATOM     15  C   UNL     1      42.872   2.183  20.850  0.00  0.00    +0.000 A 
ATOM     16  C   UNL     1      42.225   1.382  19.781  0.00  0.00    +0.000 A 
ENDROOT
BRANCH   6  17
ATOM     17  N   UNL     1      42.477   7.936  20.572  0.00  0.00    +0.000 N 
ATOM     18  N   UNL     1      42.298  10.828  20.256  0.00  0.00    +0.000 NA
ATOM     19  C   UNL     1      43.539   8.632  19.824  0.00  0.00    +0.000 C 
ATOM     20  C   UNL     1      41.130   8.524  20.500  0.00  0.00    +0.000 C 
ATOM     21  C   UNL     1      43.376  10.135  19.581  0.00  0.00    +0.000 C 
ATOM     22  C   UNL     1      41.061  10.069  20.390  0.00  0.00    +0.000 C 
ATOM     23  C   UNL     1      42.117  12.188  19.765  0.00  0.00    +0.000 C 
ENDBRANCH   6  17
BRANCH  16  25
ATOM     24  O   UNL     1      42.646  -0.837  18.903  0.00  0.00    +0.000 OA
ATOM     25  C   UNL     1      42.249  -0.094  19.782  0.00  0.00    +0.000 C 
BRANCH  25  26
ATOM     26  O   UNL     1      41.772  -0.633  20.924  0.00  0.00    +0.000 OA
ATOM     27  H   UNL     1      42.154  -1.531  20.925  0.00  0.00    +0.000 HD
ENDBRANCH  25  26
ENDBRANCH  16  25
TORSDOF 3
ENDMDL
