MODEL 1
REMARK VINA RESULT:    -7.912      0.000      0.000
REMARK INTER + INTRA:         -10.346
REMARK INTER:                  -9.994
REMARK INTRA:                  -0.352
REMARK UNBOUND:                -0.352
REMARK  Name = 152946
REMARK  6 active torsions:
REMARK  status: ('A' for Active; 'I' for Inactive)
REMARK    1  A    between atoms: O_2  and  C_21
REMARK    2  A    between atoms: O_2  and  C_29
REMARK    3  A    between atoms: O_4  and  C_28
REMARK    4  A    between atoms: N_6  and  C_19
REMARK    5  A    between atoms: N_8  and  C_14
REMARK    6  A    between atoms: C_26  and  C_28
REMARK                            x       y       z     vdW  Elec       q    Type
REMARK                         _______ _______ _______ _____ _____    ______ ____
ROOT
ATOM      1  F   UNL     1      37.848  16.682  13.821  0.00  0.00    +0.000 F 
ATOM      2  O   UNL     1      37.723  12.096  15.315  0.00  0.00    +0.000 OA
ATOM      3  N   UNL     1      40.020  13.840  18.179  0.00  0.00    +0.000 N 
ATOM      4  C   UNL     1      39.234  16.836  15.773  0.00  0.00    +0.000 A 
ATOM      5  C   UNL     1      39.569  14.670  17.075  0.00  0.00    +0.000 A 
ATOM      6  C   UNL     1      39.857  16.067  16.847  0.00  0.00    +0.000 A 
ATOM      7  C   UNL     1      38.755  14.043  16.105  0.00  0.00    +0.000 A 
ATOM      8  C   UNL     1      38.431  16.098  14.880  0.00  0.00    +0.000 A 
ATOM      9  C   UNL     1      39.798  12.465  18.111  0.00  0.00    +0.000 A 
ATOM     10  C   UNL     1      38.216  14.741  15.015  0.00  0.00    +0.000 A 
ATOM     11  C   UNL     1      39.089  11.789  17.214  0.00  0.00    +0.000 A 
ATOM     12  C   UNL     1      38.456  12.590  16.153  0.00  0.00    +0.000 A 
ENDROOT
BRANCH   4  13
ATOM     13  N   UNL     1      39.414  18.210  15.551  0.00  0.00    +0.000 N 
ATOM     14  N   UNL     1      41.505  21.160  14.968  0.00  0.00    +0.000 NA
ATOM     15  C   UNL     1      39.209  20.576  15.542  0.00  0.00    +0.000 C 
ATOM     16  C   UNL     1      40.671  20.229  15.722  0.00  0.00    +0.000 C 
ATOM     17  C   UNL     1      38.515  19.290  16.025  0.00  0.00    +0.000 C 
ATOM     18  C   UNL     1      40.734  18.769  15.302  0.00  0.00    +0.000 C 
ATOM     19  C   UNL     1      38.967  21.885  16.286  0.00  0.00    +0.000 C 
ATOM     20  C   UNL     1      39.948  22.968  15.784  0.00  0.00    +0.000 C 
ATOM     21  C   UNL     1      41.398  22.495  15.552  0.00  0.00    +0.000 C 
ATOM     22  H   UNL     1      42.477  20.853  14.974  0.00  0.00    +0.000 HD
ENDBRANCH   4  13
BRANCH   3  23
ATOM     23  C   UNL     1      40.978  14.252  19.230  0.00  0.00    +0.000 C 
ATOM     24  C   UNL     1      41.694  13.331  20.180  0.00  0.00    +0.000 C 
ATOM     25  C   UNL     1      42.491  13.996  19.120  0.00  0.00    +0.000 C 
ENDBRANCH   3  23
BRANCH   6  26
ATOM     26  O   UNL     1      41.001  16.597  17.433  0.00  0.00    +0.000 OA
ATOM     27  C   UNL     1      40.790  17.438  18.558  0.00  0.00    +0.000 C 
ENDBRANCH   6  26
BRANCH  11  29
ATOM     28  O   UNL     1      39.851   9.496  17.262  0.00  0.00    +0.000 OA
ATOM     29  C   UNL     1      38.959  10.321  17.273  0.00  0.00    +0.000 C 
BRANCH  29  30
ATOM     30  O   UNL     1      37.677   9.900  17.349  0.00  0.00    +0.000 OA
ATOM     31  H   UNL     1      37.444   9.745  16.407  0.00  0.00    +0.000 HD
ENDBRANCH  29  30
ENDBRANCH  11  29
TORSDOF 5
ENDMDL
MODEL 2
REMARK VINA RESULT:    -7.818      3.244      4.756
REMARK INTER + INTRA:         -10.227
REMARK INTER:                  -9.764
REMARK INTRA:                  -0.462
REMARK UNBOUND:                -0.352
REMARK  Name = 152946
REMARK  6 active torsions:
REMARK  status: ('A' for Active; 'I' for Inactive)
REMARK    1  A    between atoms: O_2  and  C_21
REMARK    2  A    between atoms: O_2  and  C_29
REMARK    3  A    between atoms: O_4  and  C_28
REMARK    4  A    between atoms: N_6  and  C_19
REMARK    5  A    between atoms: N_8  and  C_14
REMARK    6  A    between atoms: C_26  and  C_28
REMARK                            x       y       z     vdW  Elec       q    Type
REMARK                         _______ _______ _______ _____ _____    ______ ____
ROOT
ATOM      1  F   UNL     1      41.533  14.316  21.387  0.00  0.00    +0.000 F 
ATOM      2  O   UNL     1      39.479  10.815  18.779  0.00  0.00    +0.000 OA
ATOM      3  N   UNL     1      39.698  13.842  16.077  0.00  0.00    +0.000 N 
ATOM      4  C   UNL     1      41.223  15.467  19.305  0.00  0.00    +0.000 A 
ATOM      5  C   UNL     1      40.152  14.110  17.431  0.00  0.00    +0.000 A 
ATOM      6  C   UNL     1      40.665  15.352  17.959  0.00  0.00    +0.000 A 
ATOM      7  C   UNL     1      40.084  13.033  18.344  0.00  0.00    +0.000 A 
ATOM      8  C   UNL     1      41.107  14.318  20.113  0.00  0.00    +0.000 A 
ATOM      9  C   UNL     1      39.052  12.634  15.818  0.00  0.00    +0.000 A 
ATOM     10  C   UNL     1      40.532  13.144  19.668  0.00  0.00    +0.000 A 
ATOM     11  C   UNL     1      38.901  11.592  16.628  0.00  0.00    +0.000 A 
ATOM     12  C   UNL     1      39.489  11.726  17.971  0.00  0.00    +0.000 A 
ENDROOT
BRANCH   4  13
ATOM     13  N   UNL     1      41.805  16.625  19.844  0.00  0.00    +0.000 N 
ATOM     14  N   UNL     1      41.692  20.132  20.891  0.00  0.00    +0.000 NA
ATOM     15  C   UNL     1      43.306  18.351  20.479  0.00  0.00    +0.000 C 
ATOM     16  C   UNL     1      42.008  18.993  20.036  0.00  0.00    +0.000 C 
ATOM     17  C   UNL     1      43.242  16.984  19.777  0.00  0.00    +0.000 C 
ATOM     18  C   UNL     1      41.024  17.833  20.060  0.00  0.00    +0.000 C 
ATOM     19  C   UNL     1      44.426  19.325  20.129  0.00  0.00    +0.000 C 
ATOM     20  C   UNL     1      44.145  20.705  20.762  0.00  0.00    +0.000 C 
ATOM     21  C   UNL     1      42.681  21.188  20.684  0.00  0.00    +0.000 C 
ATOM     22  H   UNL     1      40.758  20.484  20.686  0.00  0.00    +0.000 HD
ENDBRANCH   4  13
BRANCH   3  23
ATOM     23  C   UNL     1      39.562  14.850  15.000  0.00  0.00    +0.000 C 
ATOM     24  C   UNL     1      38.797  14.670  13.717  0.00  0.00    +0.000 C 
ATOM     25  C   UNL     1      38.248  15.604  14.731  0.00  0.00    +0.000 C 
ENDBRANCH   3  23
BRANCH   6  26
ATOM     26  O   UNL     1      40.304  16.529  17.314  0.00  0.00    +0.000 OA
ATOM     27  C   UNL     1      41.321  17.150  16.540  0.00  0.00    +0.000 C 
ENDBRANCH   6  26
BRANCH  11  29
ATOM     28  O   UNL     1      38.301   9.763  15.166  0.00  0.00    +0.000 OA
ATOM     29  C   UNL     1      38.173  10.380  16.206  0.00  0.00    +0.000 C 
BRANCH  29  30
ATOM     30  O   UNL     1      37.275   9.949  17.119  0.00  0.00    +0.000 OA
ATOM     31  H   UNL     1      36.979   9.091  16.743  0.00  0.00    +0.000 HD
ENDBRANCH  29  30
ENDBRANCH  11  29
TORSDOF 5
ENDMDL
MODEL 3
REMARK VINA RESULT:    -7.729      6.900     11.224
REMARK INTER + INTRA:         -10.114
REMARK INTER:                  -9.627
REMARK INTRA:                  -0.487
REMARK UNBOUND:                -0.352
REMARK  Name = 152946
REMARK  6 active torsions:
REMARK  status: ('A' for Active; 'I' for Inactive)
REMARK    1  A    between atoms: O_2  and  C_21
REMARK    2  A    between atoms: O_2  and  C_29
REMARK    3  A    between atoms: O_4  and  C_28
REMARK    4  A    between atoms: N_6  and  C_19
REMARK    5  A    between atoms: N_8  and  C_14
REMARK    6  A    between atoms: C_26  and  C_28
REMARK                            x       y       z     vdW  Elec       q    Type
REMARK                         _______ _______ _______ _____ _____    ______ ____
ROOT
ATOM      1  F   UNL     1      38.000   8.184  14.757  0.00  0.00    +0.000 F 
ATOM      2  O   UNL     1      38.993  11.687  17.922  0.00  0.00    +0.000 OA
ATOM      3  N   UNL     1      41.493   8.728  19.149  0.00  0.00    +0.000 N 
ATOM      4  C   UNL     1      39.631   7.072  16.119  0.00  0.00    +0.000 A 
ATOM      5  C   UNL     1      40.599   8.441  18.039  0.00  0.00    +0.000 A 
ATOM      6  C   UNL     1      40.467   7.202  17.311  0.00  0.00    +0.000 A 
ATOM      7  C   UNL     1      39.756   9.496  17.620  0.00  0.00    +0.000 A 
ATOM      8  C   UNL     1      38.849   8.199  15.797  0.00  0.00    +0.000 A 
ATOM      9  C   UNL     1      41.327   9.923  19.845  0.00  0.00    +0.000 A 
ATOM     10  C   UNL     1      38.880   9.367  16.533  0.00  0.00    +0.000 A 
ATOM     11  C   UNL     1      40.528  10.943  19.552  0.00  0.00    +0.000 A 
ATOM     12  C   UNL     1      39.711  10.795  18.336  0.00  0.00    +0.000 A 
ENDROOT
BRANCH   4  13
ATOM     13  N   UNL     1      39.523   5.918  15.327  0.00  0.00    +0.000 N 
ATOM     14  N   UNL     1      38.646   2.399  14.814  0.00  0.00    +0.000 NA
ATOM     15  C   UNL     1      39.855   4.208  13.714  0.00  0.00    +0.000 C 
ATOM     16  C   UNL     1      39.514   3.552  15.035  0.00  0.00    +0.000 C 
ATOM     17  C   UNL     1      40.383   5.581  14.167  0.00  0.00    +0.000 C 
ATOM     18  C   UNL     1      38.930   4.696  15.848  0.00  0.00    +0.000 C 
ATOM     19  C   UNL     1      40.783   3.254  12.969  0.00  0.00    +0.000 C 
ATOM     20  C   UNL     1      40.123   1.864  12.842  0.00  0.00    +0.000 C 
ATOM     21  C   UNL     1      39.383   1.361  14.099  0.00  0.00    +0.000 C 
ATOM     22  H   UNL     1      38.303   2.036  15.702  0.00  0.00    +0.000 HD
ENDBRANCH   4  13
BRANCH   3  23
ATOM     23  C   UNL     1      42.363   7.741  19.829  0.00  0.00    +0.000 C 
ATOM     24  C   UNL     1      43.031   7.928  21.163  0.00  0.00    +0.000 C 
ATOM     25  C   UNL     1      41.912   6.957  21.074  0.00  0.00    +0.000 C 
ENDBRANCH   3  23
BRANCH   6  26
ATOM     26  O   UNL     1      40.858   6.030  17.948  0.00  0.00    +0.000 OA
ATOM     27  C   UNL     1      42.075   5.453  17.496  0.00  0.00    +0.000 C 
ENDBRANCH   6  26
BRANCH  11  29
ATOM     28  O   UNL     1      41.382  12.815  20.820  0.00  0.00    +0.000 OA
ATOM     29  C   UNL     1      40.457  12.145  20.404  0.00  0.00    +0.000 C 
BRANCH  29  30
ATOM     30  O   UNL     1      39.194  12.498  20.729  0.00  0.00    +0.000 OA
ATOM     31  H   UNL     1      38.921  11.784  21.345  0.00  0.00    +0.000 HD
ENDBRANCH  29  30
ENDBRANCH  11  29
TORSDOF 5
ENDMDL
MODEL 4
REMARK VINA RESULT:    -7.675      6.953     12.677
REMARK INTER + INTRA:         -10.045
REMARK INTER:                  -9.568
REMARK INTRA:                  -0.477
REMARK UNBOUND:                -0.352
REMARK  Name = 152946
REMARK  6 active torsions:
REMARK  status: ('A' for Active; 'I' for Inactive)
REMARK    1  A    between atoms: O_2  and  C_21
REMARK    2  A    between atoms: O_2  and  C_29
REMARK    3  A    between atoms: O_4  and  C_28
REMARK    4  A    between atoms: N_6  and  C_19
REMARK    5  A    between atoms: N_8  and  C_14
REMARK    6  A    between atoms: C_26  and  C_28
REMARK                            x       y       z     vdW  Elec       q    Type
REMARK                         _______ _______ _______ _____ _____    ______ ____
ROOT
ATOM      1  F   UNL     1      42.565   5.764  21.680  0.00  0.00    +0.000 F 
ATOM      2  O   UNL     1      41.101  10.344  21.296  0.00  0.00    +0.000 OA
ATOM      3  N   UNL     1      39.952   8.803  17.715  0.00  0.00    +0.000 N 
ATOM      4  C   UNL     1      41.656   5.731  19.460  0.00  0.00    +0.000 A 
ATOM      5  C   UNL     1      40.670   7.930  18.628  0.00  0.00    +0.000 A 
ATOM      6  C   UNL     1      41.057   6.556  18.413  0.00  0.00    +0.000 A 
ATOM      7  C   UNL     1      41.039   8.486  19.874  0.00  0.00    +0.000 A 
ATOM      8  C   UNL     1      41.962   6.399  20.663  0.00  0.00    +0.000 A 
ATOM      9  C   UNL     1      39.851  10.157  18.030  0.00  0.00    +0.000 A 
ATOM     10  C   UNL     1      41.694   7.739  20.863  0.00  0.00    +0.000 A 
ATOM     11  C   UNL     1      40.213  10.770  19.151  0.00  0.00    +0.000 A 
ATOM     12  C   UNL     1      40.796   9.914  20.198  0.00  0.00    +0.000 A 
ENDROOT
BRANCH   4  13
ATOM     13  N   UNL     1      41.980   4.371  19.334  0.00  0.00    +0.000 N 
ATOM     14  N   UNL     1      43.820   1.598  17.805  0.00  0.00    +0.000 NA
ATOM     15  C   UNL     1      41.925   1.998  19.286  0.00  0.00    +0.000 C 
ATOM     16  C   UNL     1      42.686   2.478  18.068  0.00  0.00    +0.000 C 
ATOM     17  C   UNL     1      41.080   3.234  19.641  0.00  0.00    +0.000 C 
ATOM     18  C   UNL     1      43.012   3.923  18.413  0.00  0.00    +0.000 C 
ATOM     19  C   UNL     1      41.230   0.699  18.893  0.00  0.00    +0.000 C 
ATOM     20  C   UNL     1      42.262  -0.310  18.345  0.00  0.00    +0.000 C 
ATOM     21  C   UNL     1      43.334   0.280  17.405  0.00  0.00    +0.000 C 
ATOM     22  H   UNL     1      44.413   1.989  17.074  0.00  0.00    +0.000 HD
ENDBRANCH   4  13
BRANCH   3  23
ATOM     23  C   UNL     1      39.585   8.472  16.319  0.00  0.00    +0.000 C 
ATOM     24  C   UNL     1      39.133   9.453  15.271  0.00  0.00    +0.000 C 
ATOM     25  C   UNL     1      40.475   8.839  15.118  0.00  0.00    +0.000 C 
ENDBRANCH   3  23
BRANCH   6  26
ATOM     26  O   UNL     1      41.186   6.116  17.100  0.00  0.00    +0.000 OA
ATOM     27  C   UNL     1      40.152   5.265  16.625  0.00  0.00    +0.000 C 
ENDBRANCH   6  26
BRANCH  11  29
ATOM     28  O   UNL     1      40.541  13.114  18.659  0.00  0.00    +0.000 OA
ATOM     29  C   UNL     1      40.050  12.226  19.328  0.00  0.00    +0.000 C 
BRANCH  29  30
ATOM     30  O   UNL     1      39.252  12.553  20.369  0.00  0.00    +0.000 OA
ATOM     31  H   UNL     1      39.756  13.271  20.810  0.00  0.00    +0.000 HD
ENDBRANCH  29  30
ENDBRANCH  11  29
TORSDOF 5
ENDMDL
MODEL 5
REMARK VINA RESULT:    -7.607      2.804      7.891
REMARK INTER + INTRA:          -9.960
REMARK INTER:                  -9.445
REMARK INTRA:                  -0.515
REMARK UNBOUND:                -0.352
REMARK  Name = 152946
REMARK  6 active torsions:
REMARK  status: ('A' for Active; 'I' for Inactive)
REMARK    1  A    between atoms: O_2  and  C_21
REMARK    2  A    between atoms: O_2  and  C_29
REMARK    3  A    between atoms: O_4  and  C_28
REMARK    4  A    between atoms: N_6  and  C_19
REMARK    5  A    between atoms: N_8  and  C_14
REMARK    6  A    between atoms: C_26  and  C_28
REMARK                            x       y       z     vdW  Elec       q    Type
REMARK                         _______ _______ _______ _____ _____    ______ ____
ROOT
ATOM      1  F   UNL     1      37.732  15.823  12.686  0.00  0.00    +0.000 F 
ATOM      2  O   UNL     1      38.420  20.565  13.243  0.00  0.00    +0.000 OA
ATOM      3  N   UNL     1      40.424  19.055  16.439  0.00  0.00    +0.000 N 
ATOM      4  C   UNL     1      39.005  15.828  14.720  0.00  0.00    +0.000 A 
ATOM      5  C   UNL     1      39.722  18.119  15.578  0.00  0.00    +0.000 A 
ATOM      6  C   UNL     1      39.624  16.686  15.727  0.00  0.00    +0.000 A 
ATOM      7  C   UNL     1      39.051  18.670  14.463  0.00  0.00    +0.000 A 
ATOM      8  C   UNL     1      38.382  16.498  13.647  0.00  0.00    +0.000 A 
ATOM      9  C   UNL     1      40.232  20.420  16.236  0.00  0.00    +0.000 A 
ATOM     10  C   UNL     1      38.374  17.874  13.528  0.00  0.00    +0.000 A 
ATOM     11  C   UNL     1      39.579  21.021  15.247  0.00  0.00    +0.000 A 
ATOM     12  C   UNL     1      38.981  20.135  14.234  0.00  0.00    +0.000 A 
ENDROOT
BRANCH   4  13
ATOM     13  N   UNL     1      38.949  14.427  14.772  0.00  0.00    +0.000 N 
ATOM     14  N   UNL     1      37.586  11.275  16.045  0.00  0.00    +0.000 NA
ATOM     15  C   UNL     1      39.473  12.111  14.747  0.00  0.00    +0.000 C 
ATOM     16  C   UNL     1      38.539  12.372  15.910  0.00  0.00    +0.000 C 
ATOM     17  C   UNL     1      40.080  13.505  14.507  0.00  0.00    +0.000 C 
ATOM     18  C   UNL     1      37.959  13.740  15.586  0.00  0.00    +0.000 C 
ATOM     19  C   UNL     1      40.381  10.956  15.155  0.00  0.00    +0.000 C 
ATOM     20  C   UNL     1      39.530   9.738  15.579  0.00  0.00    +0.000 C 
ATOM     21  C   UNL     1      38.292  10.059  16.442  0.00  0.00    +0.000 C 
ATOM     22  H   UNL     1      36.872  11.506  16.734  0.00  0.00    +0.000 HD
ENDBRANCH   4  13
BRANCH   3  23
ATOM     23  C   UNL     1      41.081  18.716  17.723  0.00  0.00    +0.000 C 
ATOM     24  C   UNL     1      41.352  19.671  18.853  0.00  0.00    +0.000 C 
ATOM     25  C   UNL     1      40.309  18.634  19.052  0.00  0.00    +0.000 C 
ENDBRANCH   3  23
BRANCH   6  26
ATOM     26  O   UNL     1      39.804  16.153  16.998  0.00  0.00    +0.000 OA
ATOM     27  C   UNL     1      41.022  15.454  17.213  0.00  0.00    +0.000 C 
ENDBRANCH   6  26
BRANCH  11  29
ATOM     28  O   UNL     1      40.331  23.317  15.324  0.00  0.00    +0.000 OA
ATOM     29  C   UNL     1      39.452  22.489  15.179  0.00  0.00    +0.000 C 
BRANCH  29  30
ATOM     30  O   UNL     1      38.193  22.907  14.922  0.00  0.00    +0.000 OA
ATOM     31  H   UNL     1      38.192  23.004  13.944  0.00  0.00    +0.000 HD
ENDBRANCH  29  30
ENDBRANCH  11  29
TORSDOF 5
ENDMDL
