MODEL 1
REMARK VINA RESULT:    -7.359      0.000      0.000
REMARK INTER + INTRA:          -9.352
REMARK INTER:                  -8.865
REMARK INTRA:                  -0.486
REMARK UNBOUND:                -0.486
REMARK  Name = 2764
REMARK  4 active torsions:
REMARK  status: ('A' for Active; 'I' for Inactive)
REMARK    1  A    between atoms: O_3  and  C_24
REMARK    2  A    between atoms: N_5  and  C_8
REMARK    3  A    between atoms: N_6  and  C_15
REMARK    4  A    between atoms: C_18  and  C_24
REMARK                            x       y       z     vdW  Elec       q    Type
REMARK                         _______ _______ _______ _____ _____    ______ ____
ROOT
ATOM      1  F   UNL     1      37.629  16.314  14.199  0.00  0.00    +0.000 F 
ATOM      2  O   UNL     1      37.666  11.554  15.528  0.00  0.00    +0.000 OA
ATOM      3  N   UNL     1      40.515  13.285  17.872  0.00  0.00    +0.000 N 
ATOM      4  C   UNL     1      39.759  14.098  16.981  0.00  0.00    +0.000 A 
ATOM      5  C   UNL     1      40.176  11.946  17.997  0.00  0.00    +0.000 A 
ATOM      6  C   UNL     1      38.791  13.512  16.154  0.00  0.00    +0.000 A 
ATOM      7  C   UNL     1      39.955  15.486  16.867  0.00  0.00    +0.000 A 
ATOM      8  C   UNL     1      39.331  16.300  15.894  0.00  0.00    +0.000 A 
ATOM      9  C   UNL     1      39.236  11.283  17.301  0.00  0.00    +0.000 A 
ATOM     10  C   UNL     1      38.499  12.060  16.268  0.00  0.00    +0.000 A 
ATOM     11  C   UNL     1      38.075  14.288  15.242  0.00  0.00    +0.000 A 
ATOM     12  C   UNL     1      38.350  15.652  15.116  0.00  0.00    +0.000 A 
ENDROOT
BRANCH   8  13
ATOM     13  N   UNL     1      39.691  17.677  15.771  0.00  0.00    +0.000 N 
ATOM     14  N   UNL     1      39.592  20.375  14.516  0.00  0.00    +0.000 NA
ATOM     15  C   UNL     1      38.602  18.644  16.078  0.00  0.00    +0.000 C 
ATOM     16  C   UNL     1      40.456  18.012  14.537  0.00  0.00    +0.000 C 
ATOM     17  C   UNL     1      38.997  20.118  15.836  0.00  0.00    +0.000 C 
ATOM     18  C   UNL     1      40.769  19.512  14.379  0.00  0.00    +0.000 C 
ATOM     19  H   UNL     1      39.885  21.349  14.468  0.00  0.00    +0.000 HD
ENDBRANCH   8  13
BRANCH   3  20
ATOM     20  C   UNL     1      41.387  13.850  18.930  0.00  0.00    +0.000 C 
ATOM     21  C   UNL     1      42.041  13.091  19.993  0.00  0.00    +0.000 C 
ATOM     22  C   UNL     1      40.859  13.971  20.374  0.00  0.00    +0.000 C 
ENDBRANCH   3  20
BRANCH   9  24
ATOM     23  O   UNL     1      39.726   8.974  17.818  0.00  0.00    +0.000 OA
ATOM     24  C   UNL     1      38.937   9.867  17.581  0.00  0.00    +0.000 C 
BRANCH  24  25
ATOM     25  O   UNL     1      37.618   9.577  17.524  0.00  0.00    +0.000 OA
ATOM     26  H   UNL     1      37.286   9.901  18.388  0.00  0.00    +0.000 HD
ENDBRANCH  24  25
ENDBRANCH   9  24
TORSDOF 4
ENDMDL
MODEL 2
REMARK VINA RESULT:    -7.204      5.996     10.410
REMARK INTER + INTRA:          -9.164
REMARK INTER:                  -8.657
REMARK INTRA:                  -0.507
REMARK UNBOUND:                -0.486
REMARK  Name = 2764
REMARK  4 active torsions:
REMARK  status: ('A' for Active; 'I' for Inactive)
REMARK    1  A    between atoms: O_3  and  C_24
REMARK    2  A    between atoms: N_5  and  C_8
REMARK    3  A    between atoms: N_6  and  C_15
REMARK    4  A    between atoms: C_18  and  C_24
REMARK                            x       y       z     vdW  Elec       q    Type
REMARK                         _______ _______ _______ _____ _____    ______ ____
ROOT
ATOM      1  F   UNL     1      42.186   5.763  21.480  0.00  0.00    +0.000 F 
ATOM      2  O   UNL     1      40.936  10.539  21.254  0.00  0.00    +0.000 OA
ATOM      3  N   UNL     1      40.435   9.177  17.446  0.00  0.00    +0.000 N 
ATOM      4  C   UNL     1      40.833   8.265  18.464  0.00  0.00    +0.000 A 
ATOM      5  C   UNL     1      40.118  10.478  17.808  0.00  0.00    +0.000 A 
ATOM      6  C   UNL     1      41.030   8.725  19.774  0.00  0.00    +0.000 A 
ATOM      7  C   UNL     1      41.070   6.902  18.214  0.00  0.00    +0.000 A 
ATOM      8  C   UNL     1      41.605   6.000  19.161  0.00  0.00    +0.000 A 
ATOM      9  C   UNL     1      40.215  11.020  19.034  0.00  0.00    +0.000 A 
ATOM     10  C   UNL     1      40.743  10.143  20.113  0.00  0.00    +0.000 A 
ATOM     11  C   UNL     1      41.466   7.853  20.772  0.00  0.00    +0.000 A 
ATOM     12  C   UNL     1      41.751   6.522  20.463  0.00  0.00    +0.000 A 
ENDROOT
BRANCH   8  13
ATOM     13  N   UNL     1      41.933   4.663  18.776  0.00  0.00    +0.000 N 
ATOM     14  N   UNL     1      43.039   1.937  19.226  0.00  0.00    +0.000 NA
ATOM     15  C   UNL     1      41.143   3.600  19.454  0.00  0.00    +0.000 C 
ATOM     16  C   UNL     1      43.394   4.375  18.715  0.00  0.00    +0.000 C 
ATOM     17  C   UNL     1      41.594   2.167  19.090  0.00  0.00    +0.000 C 
ATOM     18  C   UNL     1      43.731   2.911  18.376  0.00  0.00    +0.000 C 
ATOM     19  H   UNL     1      43.258   0.997  18.901  0.00  0.00    +0.000 HD
ENDBRANCH   8  13
BRANCH   3  20
ATOM     20  C   UNL     1      39.991   8.735  16.102  0.00  0.00    +0.000 C 
ATOM     21  C   UNL     1      39.281   9.556  15.124  0.00  0.00    +0.000 C 
ATOM     22  C   UNL     1      38.495   8.468  15.840  0.00  0.00    +0.000 C 
ENDBRANCH   3  20
BRANCH   9  24
ATOM     23  O   UNL     1      39.905  13.370  18.560  0.00  0.00    +0.000 OA
ATOM     24  C   UNL     1      39.782  12.407  19.290  0.00  0.00    +0.000 C 
BRANCH  24  25
ATOM     25  O   UNL     1      39.218  12.575  20.507  0.00  0.00    +0.000 OA
ATOM     26  H   UNL     1      39.959  12.378  21.119  0.00  0.00    +0.000 HD
ENDBRANCH  24  25
ENDBRANCH   9  24
TORSDOF 4
ENDMDL
MODEL 3
REMARK VINA RESULT:    -7.189      2.077      2.647
REMARK INTER + INTRA:          -9.146
REMARK INTER:                  -8.723
REMARK INTRA:                  -0.422
REMARK UNBOUND:                -0.486
REMARK  Name = 2764
REMARK  4 active torsions:
REMARK  status: ('A' for Active; 'I' for Inactive)
REMARK    1  A    between atoms: O_3  and  C_24
REMARK    2  A    between atoms: N_5  and  C_8
REMARK    3  A    between atoms: N_6  and  C_15
REMARK    4  A    between atoms: C_18  and  C_24
REMARK                            x       y       z     vdW  Elec       q    Type
REMARK                         _______ _______ _______ _____ _____    ______ ____
ROOT
ATOM      1  F   UNL     1      38.097  14.513  14.049  0.00  0.00    +0.000 F 
ATOM      2  O   UNL     1      39.175  11.633  17.918  0.00  0.00    +0.000 OA
ATOM      3  N   UNL     1      40.911  15.213  18.802  0.00  0.00    +0.000 N 
ATOM      4  C   UNL     1      40.154  15.084  17.603  0.00  0.00    +0.000 A 
ATOM      5  C   UNL     1      40.936  14.146  19.688  0.00  0.00    +0.000 A 
ATOM      6  C   UNL     1      39.570  13.852  17.277  0.00  0.00    +0.000 A 
ATOM      7  C   UNL     1      39.981  16.144  16.696  0.00  0.00    +0.000 A 
ATOM      8  C   UNL     1      39.364  16.015  15.431  0.00  0.00    +0.000 A 
ATOM      9  C   UNL     1      40.372  12.938  19.513  0.00  0.00    +0.000 A 
ATOM     10  C   UNL     1      39.671  12.709  18.221  0.00  0.00    +0.000 A 
ATOM     11  C   UNL     1      38.866  13.697  16.082  0.00  0.00    +0.000 A 
ATOM     12  C   UNL     1      38.774  14.760  15.181  0.00  0.00    +0.000 A 
ENDROOT
BRANCH   8  13
ATOM     13  N   UNL     1      39.349  17.119  14.523  0.00  0.00    +0.000 N 
ATOM     14  N   UNL     1      39.517  20.002  13.803  0.00  0.00    +0.000 NA
ATOM     15  C   UNL     1      40.656  17.806  14.343  0.00  0.00    +0.000 C 
ATOM     16  C   UNL     1      38.202  18.055  14.702  0.00  0.00    +0.000 C 
ATOM     17  C   UNL     1      40.580  19.056  13.437  0.00  0.00    +0.000 C 
ATOM     18  C   UNL     1      38.241  19.281  13.771  0.00  0.00    +0.000 C 
ATOM     19  H   UNL     1      39.492  20.755  13.117  0.00  0.00    +0.000 HD
ENDBRANCH   8  13
BRANCH   3  20
ATOM     20  C   UNL     1      41.366  16.522  19.327  0.00  0.00    +0.000 C 
ATOM     21  C   UNL     1      41.556  16.859  20.736  0.00  0.00    +0.000 C 
ATOM     22  C   UNL     1      40.356  17.461  20.019  0.00  0.00    +0.000 C 
ENDBRANCH   3  20
BRANCH   9  24
ATOM     23  O   UNL     1      41.133  10.926  20.616  0.00  0.00    +0.000 OA
ATOM     24  C   UNL     1      40.424  11.912  20.571  0.00  0.00    +0.000 C 
BRANCH  24  25
ATOM     25  O   UNL     1      39.536  12.125  21.567  0.00  0.00    +0.000 OA
ATOM     26  H   UNL     1      39.762  13.030  21.871  0.00  0.00    +0.000 HD
ENDBRANCH  24  25
ENDBRANCH   9  24
TORSDOF 4
ENDMDL
MODEL 4
REMARK VINA RESULT:    -7.157      6.409     10.444
REMARK INTER + INTRA:          -9.108
REMARK INTER:                  -8.677
REMARK INTRA:                  -0.431
REMARK UNBOUND:                -0.486
REMARK  Name = 2764
REMARK  4 active torsions:
REMARK  status: ('A' for Active; 'I' for Inactive)
REMARK    1  A    between atoms: O_3  and  C_24
REMARK    2  A    between atoms: N_5  and  C_8
REMARK    3  A    between atoms: N_6  and  C_15
REMARK    4  A    between atoms: C_18  and  C_24
REMARK                            x       y       z     vdW  Elec       q    Type
REMARK                         _______ _______ _______ _____ _____    ______ ____
ROOT
ATOM      1  F   UNL     1      42.268   7.844  21.573  0.00  0.00    +0.000 F 
ATOM      2  O   UNL     1      39.605  10.817  18.658  0.00  0.00    +0.000 OA
ATOM      3  N   UNL     1      39.868   7.323  16.576  0.00  0.00    +0.000 N 
ATOM      4  C   UNL     1      40.448   7.406  17.874  0.00  0.00    +0.000 A 
ATOM      5  C   UNL     1      39.130   8.402  16.110  0.00  0.00    +0.000 A 
ATOM      6  C   UNL     1      40.384   8.608  18.592  0.00  0.00    +0.000 A 
ATOM      7  C   UNL     1      41.120   6.327  18.475  0.00  0.00    +0.000 A 
ATOM      8  C   UNL     1      41.833   6.413  19.693  0.00  0.00    +0.000 A 
ATOM      9  C   UNL     1      38.952   9.584  16.726  0.00  0.00    +0.000 A 
ATOM     10  C   UNL     1      39.640   9.767  18.033  0.00  0.00    +0.000 A 
ATOM     11  C   UNL     1      40.989   8.718  19.844  0.00  0.00    +0.000 A 
ATOM     12  C   UNL     1      41.702   7.641  20.374  0.00  0.00    +0.000 A 
ENDROOT
BRANCH   8  13
ATOM     13  N   UNL     1      42.594   5.298  20.161  0.00  0.00    +0.000 N 
ATOM     14  N   UNL     1      43.352   2.421  20.263  0.00  0.00    +0.000 NA
ATOM     15  C   UNL     1      43.511   4.694  19.157  0.00  0.00    +0.000 C 
ATOM     16  C   UNL     1      41.811   4.293  20.935  0.00  0.00    +0.000 C 
ATOM     17  C   UNL     1      44.239   3.429  19.666  0.00  0.00    +0.000 C 
ATOM     18  C   UNL     1      42.625   3.058  21.365  0.00  0.00    +0.000 C 
ATOM     19  H   UNL     1      43.917   1.659  20.633  0.00  0.00    +0.000 HD
ENDBRANCH   8  13
BRANCH   3  20
ATOM     20  C   UNL     1      39.696   6.041  15.854  0.00  0.00    +0.000 C 
ATOM     21  C   UNL     1      38.665   5.751  14.861  0.00  0.00    +0.000 C 
ATOM     22  C   UNL     1      38.532   5.101  16.230  0.00  0.00    +0.000 C 
ENDBRANCH   3  20
BRANCH   9  24
ATOM     23  O   UNL     1      38.430  11.660  15.605  0.00  0.00    +0.000 OA
ATOM     24  C   UNL     1      38.087  10.625  16.142  0.00  0.00    +0.000 C 
BRANCH  24  25
ATOM     25  O   UNL     1      36.768  10.362  16.274  0.00  0.00    +0.000 OA
ATOM     26  H   UNL     1      36.708   9.416  16.022  0.00  0.00    +0.000 HD
ENDBRANCH  24  25
ENDBRANCH   9  24
TORSDOF 4
ENDMDL
MODEL 5
REMARK VINA RESULT:    -7.065      2.964      4.232
REMARK INTER + INTRA:          -8.997
REMARK INTER:                  -8.385
REMARK INTRA:                  -0.613
REMARK UNBOUND:                -0.486
REMARK  Name = 2764
REMARK  4 active torsions:
REMARK  status: ('A' for Active; 'I' for Inactive)
REMARK    1  A    between atoms: O_3  and  C_24
REMARK    2  A    between atoms: N_5  and  C_8
REMARK    3  A    between atoms: N_6  and  C_15
REMARK    4  A    between atoms: C_18  and  C_24
REMARK                            x       y       z     vdW  Elec       q    Type
REMARK                         _______ _______ _______ _____ _____    ______ ____
ROOT
ATOM      1  F   UNL     1      41.934  14.732  20.985  0.00  0.00    +0.000 F 
ATOM      2  O   UNL     1      39.572  10.966  18.827  0.00  0.00    +0.000 OA
ATOM      3  N   UNL     1      39.059  14.090  16.261  0.00  0.00    +0.000 N 
ATOM      4  C   UNL     1      39.845  14.274  17.434  0.00  0.00    +0.000 A 
ATOM      5  C   UNL     1      38.590  12.817  15.971  0.00  0.00    +0.000 A 
ATOM      6  C   UNL     1      40.010  13.214  18.336  0.00  0.00    +0.000 A 
ATOM      7  C   UNL     1      40.453  15.500  17.755  0.00  0.00    +0.000 A 
ATOM      8  C   UNL     1      41.114  15.764  18.977  0.00  0.00    +0.000 A 
ATOM      9  C   UNL     1      38.729  11.714  16.727  0.00  0.00    +0.000 A 
ATOM     10  C   UNL     1      39.438  11.879  18.025  0.00  0.00    +0.000 A 
ATOM     11  C   UNL     1      40.737  13.394  19.513  0.00  0.00    +0.000 A 
ATOM     12  C   UNL     1      41.270  14.647  19.823  0.00  0.00    +0.000 A 
ENDROOT
BRANCH   8  13
ATOM     13  N   UNL     1      41.590  17.080  19.267  0.00  0.00    +0.000 N 
ATOM     14  N   UNL     1      41.451  20.053  19.222  0.00  0.00    +0.000 NA
ATOM     15  C   UNL     1      40.777  17.841  20.255  0.00  0.00    +0.000 C 
ATOM     16  C   UNL     1      41.977  17.879  18.070  0.00  0.00    +0.000 C 
ATOM     17  C   UNL     1      41.261  19.294  20.466  0.00  0.00    +0.000 C 
ATOM     18  C   UNL     1      42.412  19.321  18.391  0.00  0.00    +0.000 C 
ATOM     19  H   UNL     1      41.836  20.969  19.447  0.00  0.00    +0.000 HD
ENDBRANCH   8  13
BRANCH   3  20
ATOM     20  C   UNL     1      39.021  15.078  15.157  0.00  0.00    +0.000 C 
ATOM     21  C   UNL     1      38.774  14.777  13.749  0.00  0.00    +0.000 C 
ATOM     22  C   UNL     1      40.192  15.152  14.155  0.00  0.00    +0.000 C 
ENDBRANCH   3  20
BRANCH   9  24
ATOM     23  O   UNL     1      38.470   9.849  15.211  0.00  0.00    +0.000 OA
ATOM     24  C   UNL     1      38.231  10.405  16.265  0.00  0.00    +0.000 C 
BRANCH  24  25
ATOM     25  O   UNL     1      37.388   9.814  17.141  0.00  0.00    +0.000 OA
ATOM     26  H   UNL     1      36.629   9.559  16.574  0.00  0.00    +0.000 HD
ENDBRANCH  24  25
ENDBRANCH   9  24
TORSDOF 4
ENDMDL
