REMARK  Name = 149096
REMARK  5 active torsions:
REMARK  status: ('A' for Active; 'I' for Inactive)
REMARK    1  A    between atoms: O_4  and  C_26
REMARK    2  A    between atoms: N_6  and  C_12
REMARK    3  A    between atoms: N_8  and  C_24
REMARK    4  A    between atoms: C_11  and  C_22
REMARK    5  A    between atoms: C_25  and  C_26
REMARK                            x       y       z     vdW  Elec       q    Type
REMARK                         _______ _______ _______ _____ _____    ______ ____
ROOT
ATOM      1  F   UNL     1       6.889   3.463   0.025  0.00  0.00    +0.000 F 
ATOM      2  O   UNL     1       4.560  -0.638  -0.878  0.00  0.00    +0.000 OA
ATOM      3  O   UNL     1      10.369  -0.028   0.039  0.00  0.00    +0.000 OA
ATOM      4  N   UNL     1       6.854  -2.087  -0.289  0.00  0.00    +0.000 N 
ATOM      5  C   UNL     1       5.592  -2.621   0.281  0.00  0.00    +0.000 C 
ATOM      6  C   UNL     1       5.558   1.482  -0.302  0.00  0.00    +0.000 A 
ATOM      7  C   UNL     1       6.848  -0.660  -0.271  0.00  0.00    +0.000 A 
ATOM      8  C   UNL     1       5.651   0.063  -0.430  0.00  0.00    +0.000 A 
ATOM      9  C   UNL     1       4.351  -1.900  -0.265  0.00  0.00    +0.000 C 
ATOM     10  C   UNL     1       8.038   0.056  -0.124  0.00  0.00    +0.000 A 
ATOM     11  C   UNL     1       6.803   2.131  -0.110  0.00  0.00    +0.000 A 
ATOM     12  C   UNL     1       8.074  -2.729  -0.173  0.00  0.00    +0.000 A 
ATOM     13  C   UNL     1       8.017   1.445  -0.042  0.00  0.00    +0.000 A 
ATOM     14  C   UNL     1       5.389  -4.125   0.080  0.00  0.00    +0.000 C 
ATOM     15  C   UNL     1       9.328  -0.664  -0.051  0.00  0.00    +0.000 A 
ATOM     16  C   UNL     1       9.294  -2.147  -0.082  0.00  0.00    +0.000 A 
ENDROOT
BRANCH   6  17
ATOM     17  N   UNL     1       4.320   2.190  -0.374  0.00  0.00    +0.000 N 
ATOM     18  N   UNL     1       1.746   3.557  -0.352  0.00  0.00    +0.000 NA
ATOM     19  C   UNL     1       3.105   1.404  -0.093  0.00  0.00    +0.000 C 
ATOM     20  C   UNL     1       4.307   3.596   0.060  0.00  0.00    +0.000 C 
ATOM     21  C   UNL     1       1.775   2.156   0.015  0.00  0.00    +0.000 C 
ATOM     22  C   UNL     1       2.936   4.318   0.008  0.00  0.00    +0.000 C 
ATOM     23  C   UNL     1       0.490   4.201   0.011  0.00  0.00    +0.000 C 
ENDBRANCH   6  17
BRANCH  16  25
ATOM     24  O   UNL     1      11.670  -2.577   0.119  0.00  0.00    +0.000 OA
ATOM     25  C   UNL     1      10.520  -2.963   0.023  0.00  0.00    +0.000 C 
BRANCH  25  26
ATOM     26  O   UNL     1      10.277  -4.291   0.020  0.00  0.00    +0.000 OA
ATOM     27  H   UNL     1      11.168  -4.682   0.091  0.00  0.00    +0.000 HD
ENDBRANCH  25  26
ENDBRANCH  16  25
TORSDOF 3
