REMARK  Name = 152946
REMARK  6 active torsions:
REMARK  status: ('A' for Active; 'I' for Inactive)
REMARK    1  A    between atoms: O_2  and  C_21
REMARK    2  A    between atoms: O_2  and  C_29
REMARK    3  A    between atoms: O_4  and  C_28
REMARK    4  A    between atoms: N_6  and  C_19
REMARK    5  A    between atoms: N_8  and  C_14
REMARK    6  A    between atoms: C_26  and  C_28
REMARK                            x       y       z     vdW  Elec       q    Type
REMARK                         _______ _______ _______ _____ _____    ______ ____
ROOT
ATOM      1  F   UNL     1       4.683   2.716  -0.236  0.00  0.00    +0.000 F 
ATOM      2  O   UNL     1       9.356   3.814  -0.717  0.00  0.00    +0.000 OA
ATOM      3  N   UNL     1       9.513  -0.181   0.010  0.00  0.00    +0.000 N 
ATOM      4  C   UNL     1       5.665   0.563   0.160  0.00  0.00    +0.000 A 
ATOM      5  C   UNL     1       8.209   0.459   0.031  0.00  0.00    +0.000 A 
ATOM      6  C   UNL     1       6.930  -0.153   0.304  0.00  0.00    +0.000 A 
ATOM      7  C   UNL     1       8.182   1.845  -0.246  0.00  0.00    +0.000 A 
ATOM      8  C   UNL     1       5.772   1.938  -0.133  0.00  0.00    +0.000 A 
ATOM      9  C   UNL     1      10.648   0.623  -0.078  0.00  0.00    +0.000 A 
ATOM     10  C   UNL     1       6.986   2.574  -0.303  0.00  0.00    +0.000 A 
ATOM     11  C   UNL     1      10.714   1.933  -0.288  0.00  0.00    +0.000 A 
ATOM     12  C   UNL     1       9.426   2.628  -0.449  0.00  0.00    +0.000 A 
ENDROOT
BRANCH   4  13
ATOM     13  N   UNL     1       4.391   0.001   0.336  0.00  0.00    +0.000 N 
ATOM     14  N   UNL     1       2.074  -2.834   0.423  0.00  0.00    +0.000 NA
ATOM     15  C   UNL     1       2.051  -0.396   0.394  0.00  0.00    +0.000 C 
ATOM     16  C   UNL     1       2.730  -1.648  -0.119  0.00  0.00    +0.000 C 
ATOM     17  C   UNL     1       3.100   0.686   0.084  0.00  0.00    +0.000 C 
ATOM     18  C   UNL     1       4.184  -1.437   0.274  0.00  0.00    +0.000 C 
ATOM     19  C   UNL     1       0.681  -0.328  -0.272  0.00  0.00    +0.000 C 
ATOM     20  C   UNL     1      -0.101  -1.634  -0.010  0.00  0.00    +0.000 C 
ATOM     21  C   UNL     1       0.721  -2.935  -0.119  0.00  0.00    +0.000 C 
ATOM     22  H   UNL     1       2.606  -3.672   0.193  0.00  0.00    +0.000 HD
ENDBRANCH   4  13
BRANCH   3  23
ATOM     23  C   UNL     1       9.788  -1.585   0.394  0.00  0.00    +0.000 C 
ATOM     24  C   UNL     1       9.670  -2.784  -0.507  0.00  0.00    +0.000 C 
ATOM     25  C   UNL     1      11.029  -2.351  -0.097  0.00  0.00    +0.000 C 
ENDBRANCH   3  23
BRANCH   6  26
ATOM     26  O   UNL     1       6.919  -1.327   1.049  0.00  0.00    +0.000 OA
ATOM     27  C   UNL     1       6.884  -2.536   0.304  0.00  0.00    +0.000 C 
ENDBRANCH   6  26
BRANCH  11  29
ATOM     28  O   UNL     1      12.185   3.848  -0.394  0.00  0.00    +0.000 OA
ATOM     29  C   UNL     1      12.004   2.647  -0.343  0.00  0.00    +0.000 C 
BRANCH  29  30
ATOM     30  O   UNL     1      13.074   1.822  -0.332  0.00  0.00    +0.000 OA
ATOM     31  H   UNL     1      13.830   2.447  -0.384  0.00  0.00    +0.000 HD
ENDBRANCH  29  30
ENDBRANCH  11  29
TORSDOF 5
