MODEL 1
REMARK VINA RESULT:    -7.236      0.000      0.000
REMARK INTER + INTRA:         -10.014
REMARK INTER:                  -9.139
REMARK INTRA:                  -0.875
REMARK UNBOUND:                -0.875
REMARK  Name = 152946
REMARK  6 active torsions:
REMARK  status: ('A' for Active; 'I' for Inactive)
REMARK    1  A    between atoms: O_2  and  C_21
REMARK    2  A    between atoms: O_2  and  C_29
REMARK    3  A    between atoms: O_4  and  C_28
REMARK    4  A    between atoms: N_6  and  C_19
REMARK    5  A    between atoms: N_8  and  C_14
REMARK    6  A    between atoms: C_26  and  C_28
REMARK                            x       y       z     vdW  Elec       q    Type
REMARK                         _______ _______ _______ _____ _____    ______ ____
ROOT
ATOM      1  F   UNL     1      25.653  15.158  14.243  0.00  0.00    +0.000 F 
ATOM      2  O   UNL     1      22.380  18.657  15.115  0.00  0.00    +0.000 OA
ATOM      3  N   UNL     1      25.924  20.627  15.157  0.00  0.00    +0.000 N 
ATOM      4  C   UNL     1      27.135  17.025  14.578  0.00  0.00    +0.000 A 
ATOM      5  C   UNL     1      25.975  19.195  15.002  0.00  0.00    +0.000 A 
ATOM      6  C   UNL     1      27.190  18.423  14.894  0.00  0.00    +0.000 A 
ATOM      7  C   UNL     1      24.736  18.524  14.941  0.00  0.00    +0.000 A 
ATOM      8  C   UNL     1      25.824  16.468  14.482  0.00  0.00    +0.000 A 
ATOM      9  C   UNL     1      24.701  21.264  15.369  0.00  0.00    +0.000 A 
ATOM     10  C   UNL     1      24.656  17.172  14.691  0.00  0.00    +0.000 A 
ATOM     11  C   UNL     1      23.493  20.692  15.374  0.00  0.00    +0.000 A 
ATOM     12  C   UNL     1      23.454  19.241  15.147  0.00  0.00    +0.000 A 
ENDROOT
BRANCH   4  13
ATOM     13  N   UNL     1      28.192  16.161  14.372  0.00  0.00    +0.000 N 
ATOM     14  N   UNL     1      31.536  14.853  15.245  0.00  0.00    +0.000 NA
ATOM     15  C   UNL     1      30.025  15.076  13.257  0.00  0.00    +0.000 C 
ATOM     16  C   UNL     1      30.413  15.567  14.654  0.00  0.00    +0.000 C 
ATOM     17  C   UNL     1      28.723  15.878  13.012  0.00  0.00    +0.000 C 
ATOM     18  C   UNL     1      29.024  15.481  15.345  0.00  0.00    +0.000 C 
ATOM     19  C   UNL     1      29.772  13.555  13.276  0.00  0.00    +0.000 C 
ATOM     20  C   UNL     1      30.856  12.798  14.051  0.00  0.00    +0.000 C 
ATOM     21  C   UNL     1      31.241  13.433  15.386  0.00  0.00    +0.000 C 
ATOM     22  H   UNL     1      32.354  14.964  14.640  0.00  0.00    +0.000 HD
ENDBRANCH   4  13
BRANCH   3  23
ATOM     23  C   UNL     1      27.071  21.510  14.854  0.00  0.00    +0.000 C 
ATOM     24  C   UNL     1      27.761  22.278  15.968  0.00  0.00    +0.000 C 
ATOM     25  C   UNL     1      27.007  23.019  14.925  0.00  0.00    +0.000 C 
ENDBRANCH   3  23
BRANCH   6  26
ATOM     26  O   UNL     1      28.321  19.112  15.295  0.00  0.00    +0.000 OA
ATOM     27  C   UNL     1      28.968  18.843  16.533  0.00  0.00    +0.000 C 
ENDBRANCH   6  26
BRANCH  11  29
ATOM     28  O   UNL     1      22.245  22.524  16.246  0.00  0.00    +0.000 OA
ATOM     29  C   UNL     1      22.279  21.516  15.559  0.00  0.00    +0.000 C 
BRANCH  29  30
ATOM     30  O   UNL     1      21.191  21.069  14.882  0.00  0.00    +0.000 OA
ATOM     31  H   UNL     1      21.297  21.073  13.902  0.00  0.00    +0.000 HD
ENDBRANCH  29  30
ENDBRANCH  11  29
TORSDOF 5
ENDMDL
