MODEL 1
REMARK VINA RESULT:    -7.269      0.000      0.000
REMARK INTER + INTRA:          -9.357
REMARK INTER:                  -8.756
REMARK INTRA:                  -0.601
REMARK UNBOUND:                -0.601
REMARK  Name = 2764
REMARK  4 active torsions:
REMARK  status: ('A' for Active; 'I' for Inactive)
REMARK    1  A    between atoms: O_3  and  C_24
REMARK    2  A    between atoms: N_5  and  C_8
REMARK    3  A    between atoms: N_6  and  C_15
REMARK    4  A    between atoms: C_18  and  C_24
REMARK                            x       y       z     vdW  Elec       q    Type
REMARK                         _______ _______ _______ _____ _____    ______ ____
ROOT
ATOM      1  F   UNL     1      29.302  18.305  13.667  0.00  0.00    +0.000 F 
ATOM      2  O   UNL     1      25.152  15.671  14.512  0.00  0.00    +0.000 OA
ATOM      3  N   UNL     1      24.022  19.564  14.938  0.00  0.00    +0.000 N 
ATOM      4  C   UNL     1      25.399  19.271  14.682  0.00  0.00    +0.000 A 
ATOM      5  C   UNL     1      23.111  18.517  14.895  0.00  0.00    +0.000 A 
ATOM      6  C   UNL     1      25.810  17.941  14.505  0.00  0.00    +0.000 A 
ATOM      7  C   UNL     1      26.374  20.274  14.573  0.00  0.00    +0.000 A 
ATOM      8  C   UNL     1      27.716  20.001  14.231  0.00  0.00    +0.000 A 
ATOM      9  C   UNL     1      23.399  17.214  14.749  0.00  0.00    +0.000 A 
ATOM     10  C   UNL     1      24.820  16.851  14.597  0.00  0.00    +0.000 A 
ATOM     11  C   UNL     1      27.135  17.627  14.189  0.00  0.00    +0.000 A 
ATOM     12  C   UNL     1      28.056  18.650  14.039  0.00  0.00    +0.000 A 
ENDROOT
BRANCH   8  13
ATOM     13  N   UNL     1      28.627  21.044  14.166  0.00  0.00    +0.000 N 
ATOM     14  N   UNL     1      30.722  23.061  14.028  0.00  0.00    +0.000 NA
ATOM     15  C   UNL     1      28.733  21.886  12.965  0.00  0.00    +0.000 C 
ATOM     16  C   UNL     1      29.082  21.708  15.399  0.00  0.00    +0.000 C 
ATOM     17  C   UNL     1      30.193  22.378  12.825  0.00  0.00    +0.000 C 
ATOM     18  C   UNL     1      30.542  22.176  15.202  0.00  0.00    +0.000 C 
ATOM     19  H   UNL     1      30.165  23.901  14.179  0.00  0.00    +0.000 HD
ENDBRANCH   8  13
BRANCH   3  20
ATOM     20  C   UNL     1      23.510  20.930  14.657  0.00  0.00    +0.000 C 
ATOM     21  C   UNL     1      23.249  21.927  15.759  0.00  0.00    +0.000 C 
ATOM     22  C   UNL     1      22.106  21.391  14.956  0.00  0.00    +0.000 C 
ENDBRANCH   3  20
BRANCH   9  24
ATOM     23  O   UNL     1      21.147  16.491  14.985  0.00  0.00    +0.000 OA
ATOM     24  C   UNL     1      22.300  16.229  14.685  0.00  0.00    +0.000 C 
BRANCH  24  25
ATOM     25  O   UNL     1      22.670  15.004  14.249  0.00  0.00    +0.000 OA
ATOM     26  H   UNL     1      23.076  14.431  14.945  0.00  0.00    +0.000 HD
ENDBRANCH  24  25
ENDBRANCH   9  24
TORSDOF 4
ENDMDL
