MODEL 1
REMARK VINA RESULT:    -7.314      0.000      0.000
REMARK INTER + INTRA:          -8.718
REMARK INTER:                  -8.383
REMARK INTRA:                  -0.335
REMARK UNBOUND:                -0.335
REMARK  Name = 149096
REMARK  5 active torsions:
REMARK  status: ('A' for Active; 'I' for Inactive)
REMARK    1  A    between atoms: O_4  and  C_26
REMARK    2  A    between atoms: N_6  and  C_12
REMARK    3  A    between atoms: N_8  and  C_24
REMARK    4  A    between atoms: C_11  and  C_22
REMARK    5  A    between atoms: C_25  and  C_26
REMARK                            x       y       z     vdW  Elec       q    Type
REMARK                         _______ _______ _______ _____ _____    ______ ____
ROOT
ATOM      1  F   UNL     1      29.430  17.287  15.084  0.00  0.00    +0.000 F 
ATOM      2  O   UNL     1      26.416  20.958  14.497  0.00  0.00    +0.000 OA
ATOM      3  O   UNL     1      24.945  15.121  14.687  0.00  0.00    +0.000 OA
ATOM      4  N   UNL     1      24.223  19.104  14.480  0.00  0.00    +0.000 N 
ATOM      5  C   UNL     1      24.014  20.560  14.538  0.00  0.00    +0.000 C 
ATOM      6  C   UNL     1      27.980  19.176  14.881  0.00  0.00    +0.000 A 
ATOM      7  C   UNL     1      25.574  18.681  14.585  0.00  0.00    +0.000 A 
ATOM      8  C   UNL     1      26.654  19.604  14.631  0.00  0.00    +0.000 A 
ATOM      9  C   UNL     1      25.183  21.247  13.834  0.00  0.00    +0.000 C 
ATOM     10  C   UNL     1      25.853  17.308  14.672  0.00  0.00    +0.000 A 
ATOM     11  C   UNL     1      28.186  17.775  14.928  0.00  0.00    +0.000 A 
ATOM     12  C   UNL     1      23.200  18.175  14.490  0.00  0.00    +0.000 A 
ATOM     13  C   UNL     1      27.157  16.849  14.818  0.00  0.00    +0.000 A 
ATOM     14  C   UNL     1      23.879  21.021  15.993  0.00  0.00    +0.000 C 
ATOM     15  C   UNL     1      24.740  16.331  14.633  0.00  0.00    +0.000 A 
ATOM     16  C   UNL     1      23.353  16.843  14.552  0.00  0.00    +0.000 A 
ENDROOT
BRANCH   6  17
ATOM     17  N   UNL     1      29.092  20.020  15.088  0.00  0.00    +0.000 N 
ATOM     18  N   UNL     1      30.917  22.237  15.686  0.00  0.00    +0.000 NA
ATOM     19  C   UNL     1      29.571  20.913  14.014  0.00  0.00    +0.000 C 
ATOM     20  C   UNL     1      29.040  20.729  16.393  0.00  0.00    +0.000 C 
ATOM     21  C   UNL     1      30.947  21.518  14.392  0.00  0.00    +0.000 C 
ATOM     22  C   UNL     1      30.426  21.315  16.735  0.00  0.00    +0.000 C 
ATOM     23  C   UNL     1      32.243  22.744  16.028  0.00  0.00    +0.000 C 
ENDBRANCH   6  17
BRANCH  16  25
ATOM     24  O   UNL     1      21.053  16.356  14.908  0.00  0.00    +0.000 OA
ATOM     25  C   UNL     1      22.159  15.974  14.556  0.00  0.00    +0.000 C 
BRANCH  25  26
ATOM     26  O   UNL     1      22.386  14.708  14.140  0.00  0.00    +0.000 OA
ATOM     27  H   UNL     1      22.635  14.635  13.186  0.00  0.00    +0.000 HD
ENDBRANCH  25  26
ENDBRANCH  16  25
TORSDOF 3
ENDMDL
